REMARK SMILES C[C@H](CCCC(C)(C)O)[C@H]1CC[C@H]2[C@@H]3CC=C4C[C@@H](OS(=O)(=O)[O-])CC[C@]4(C)[C@@H]3CC[C@]12C
REMARK SMILES IDX 3 1 2 2 1 3 10 4 11 5 32 6 12 7 31 8 13 9 30 10 14 11 29 12
REMARK SMILES IDX 15 13 27 14 16 15 26 16 17 17 25 18 18 19 19 20 33 21 28 22
REMARK SMILES IDX 20 23 21 24 24 25 22 26 23 27 4 28 5 29 6 30 7 31 8 32 9 33
REMARK H PARENT 9 34
ROOT
ATOM      1  C   UNL     1      -3.257  -0.426   1.533  1.00  0.00     0.004 C 
ENDROOT
BRANCH   1   2
ATOM      2  C   UNL     1      -2.162   0.305   0.836  1.00  0.00    -0.011 C 
ATOM      3  C   UNL     1      -1.536   1.223   1.900  1.00  0.00     0.008 C 
BRANCH   2   4
ATOM      4  C   UNL     1      -1.130  -0.357   0.047  1.00  0.00    -0.002 C 
ATOM      5  C   UNL     1      -1.578  -1.333  -1.009  1.00  0.00     0.005 C 
ATOM      6  C   UNL     1      -0.233   0.562  -0.771  1.00  0.00    -0.026 C 
ATOM      7  C   UNL     1      -0.461  -1.352  -2.031  1.00  0.00     0.005 C 
ATOM      8  C   UNL     1       0.730   1.393  -0.026  1.00  0.00     0.007 C 
ATOM      9  C   UNL     1       0.625  -0.480  -1.463  1.00  0.00    -0.001 C 
ATOM     10  C   UNL     1       1.684   2.111  -0.965  1.00  0.00     0.005 C 
ATOM     11  C   UNL     1       1.449   0.175  -2.498  1.00  0.00     0.000 C 
ATOM     12  C   UNL     1       2.357   1.230  -1.946  1.00  0.00     0.003 C 
ATOM     13  C   UNL     1       2.260  -0.840  -3.287  1.00  0.00     0.031 C 
ATOM     14  C   UNL     1       3.742   0.751  -1.581  1.00  0.00    -0.008 C 
ATOM     15  C   UNL     1       3.140  -1.485  -2.301  1.00  0.00    -0.027 C 
ATOM     16  C   UNL     1       4.246   1.454  -0.325  1.00  0.00     0.014 C 
ATOM     17  C   UNL     1       3.868  -0.714  -1.456  1.00  0.00    -0.065 C 
ATOM     18  C   UNL     1       5.488   0.726   0.191  1.00  0.00     0.035 C 
ATOM     19  C   UNL     1       4.721  -1.454  -0.504  1.00  0.00     0.064 C 
ATOM     20  C   UNL     1       5.004  -0.622   0.695  1.00  0.00     0.142 C 
ATOM     21  C   UNL     1      -1.077   1.339  -1.754  1.00  0.00     0.012 C 
ATOM     22  C   UNL     1       4.774   1.139  -2.660  1.00  0.00     0.016 C 
BRANCH  20  23
ATOM     23  O   UNL     1       5.883  -1.187   1.593  1.00  0.00    -0.276 OA
BRANCH  23  24
ATOM     24  S   UNL     1       5.242  -1.365   3.134  1.00  0.00     0.217 S 
ATOM     25  O   UNL     1       5.370  -2.993   3.562  1.00  0.00    -0.726 OA
ATOM     26  O   UNL     1       5.983  -0.580   4.157  1.00  0.00    -0.213 OA
ATOM     27  O   UNL     1       3.764  -1.035   3.166  1.00  0.00    -0.213 OA
ENDBRANCH  23  24
ENDBRANCH  20  23
ENDBRANCH   2   4
ENDBRANCH   1   2
BRANCH   1  28
ATOM     28  C   UNL     1      -4.224  -1.206   0.744  1.00  0.00     0.003 C 
BRANCH  28  29
ATOM     29  C   UNL     1      -5.336  -1.929   1.412  1.00  0.00     0.034 C 
BRANCH  29  30
ATOM     30  C   UNL     1      -6.338  -1.193   2.203  1.00  0.00     0.059 C 
ATOM     31  C   UNL     1      -5.771  -0.493   3.401  1.00  0.00     0.042 C 
ATOM     32  C   UNL     1      -7.035  -0.153   1.315  1.00  0.00     0.042 C 
BRANCH  30  33
ATOM     33  O   UNL     1      -7.363  -2.075   2.599  1.00  0.00    -0.390 OA
ATOM     34  H   UNL     1      -7.905  -2.348   1.805  1.00  0.00     0.211 HD
ENDBRANCH  30  33
ENDBRANCH  29  30
ENDBRANCH  28  29
ENDBRANCH   1  28
TORSDOF 8
