REMARK SMILES Cc1nc2ccc(F)cc2n1-c1nc(N)c(F)c(Nc2ccc(C(F)(F)F)cc2)n1
REMARK SMILES IDX 19 1 18 3 12 4 13 5 30 6 14 7 16 8 17 9 11 10 2 11 3 12 4 13
REMARK SMILES IDX 10 14 5 15 9 16 6 17 7 18 1 19 8 20 15 21 20 24 21 25 29 26
REMARK SMILES IDX 22 27 28 28 23 29 24 30 25 31 26 32 27 33
REMARK H PARENT 19 2 15 22 15 23
ROOT
ATOM      1  N   UNL     1       1.888  -1.108   1.263  1.00  0.00    -0.338 N 
ATOM      2  H   UNL     1       2.037  -1.583   2.197  1.00  0.00     0.168 HD
ENDROOT
BRANCH   1   3
ATOM      3  C   UNL     1       0.614  -1.259   0.684  1.00  0.00     0.174 A 
ATOM      4  C   UNL     1      -1.488  -0.541  -0.089  1.00  0.00     0.239 A 
ATOM      5  N   UNL     1      -1.813  -1.806  -0.497  1.00  0.00    -0.192 NA
ATOM      6  N   UNL     1      -0.291  -0.286   0.491  1.00  0.00    -0.191 NA
ATOM      7  C   UNL     1      -0.940  -2.828  -0.327  1.00  0.00     0.167 A 
ATOM      8  C   UNL     1       0.282  -2.556   0.266  1.00  0.00     0.207 A 
ATOM      9  F   UNL     1       1.135  -3.595   0.422  1.00  0.00    -0.199 F 
BRANCH   4  10
ATOM     10  N   UNL     1      -2.481   0.440  -0.333  1.00  0.00    -0.264 N 
ATOM     11  C   UNL     1      -2.591   1.337  -1.328  1.00  0.00     0.113 A 
ATOM     12  N   UNL     1      -3.717   2.061  -1.181  1.00  0.00    -0.233 NA
ATOM     13  C   UNL     1      -4.362   1.631  -0.065  1.00  0.00     0.089 A 
ATOM     14  C   UNL     1      -3.582   0.621   0.455  1.00  0.00     0.079 A 
ATOM     15  C   UNL     1      -5.553   2.026   0.534  1.00  0.00     0.033 A 
ATOM     16  C   UNL     1      -4.010  -0.009   1.610  1.00  0.00     0.068 A 
ATOM     17  C   UNL     1      -5.937   1.367   1.684  1.00  0.00     0.041 A 
ATOM     18  C   UNL     1      -5.189   0.353   2.239  1.00  0.00     0.125 A 
ATOM     19  C   UNL     1      -1.595   1.498  -2.444  1.00  0.00     0.088 C 
ATOM     20  F   UNL     1      -5.543  -0.311   3.365  1.00  0.00    -0.207 F 
ENDBRANCH   4  10
BRANCH   7  21
ATOM     21  N   UNL     1      -1.252  -4.161  -0.736  1.00  0.00    -0.381 N 
ATOM     22  H   UNL     1      -1.773  -4.737  -0.040  1.00  0.00     0.158 HD
ATOM     23  H   UNL     1      -0.967  -4.525  -1.688  1.00  0.00     0.158 HD
ENDBRANCH   7  21
ENDBRANCH   1   3
BRANCH   1  24
ATOM     24  C   UNL     1       2.960  -0.379   0.688  1.00  0.00     0.040 A 
ATOM     25  C   UNL     1       2.790   0.631  -0.239  1.00  0.00     0.027 A 
ATOM     26  C   UNL     1       4.247  -0.709   1.067  1.00  0.00     0.027 A 
ATOM     27  C   UNL     1       3.909   1.288  -0.766  1.00  0.00     0.015 A 
ATOM     28  C   UNL     1       5.370  -0.086   0.569  1.00  0.00     0.015 A 
ATOM     29  C   UNL     1       5.183   0.936  -0.370  1.00  0.00     0.056 A 
BRANCH  29  30
ATOM     30  C   UNL     1       6.408   1.599  -0.899  1.00  0.00     0.416 C 
ATOM     31  F   UNL     1       7.423   1.678   0.051  1.00  0.00    -0.166 F 
ATOM     32  F   UNL     1       6.191   2.852  -1.380  1.00  0.00    -0.166 F 
ATOM     33  F   UNL     1       6.828   0.818  -1.978  1.00  0.00    -0.166 F 
ENDBRANCH  29  30
ENDBRANCH   1  24
TORSDOF 5
