REMARK SMILES CC1=Nc2c(F)cc(-c3nc(Nc4ccc([C@H]5CC[N@H+](C)CC5)cn4)ncc3F)cc2C12CCCC2
REMARK SMILES IDX 12 1 13 3 16 4 15 5 24 6 14 7 25 8 17 9 20 10 19 11 22 12
REMARK SMILES IDX 18 13 23 14 21 15 11 17 26 18 10 19 27 20 9 21 28 22 29 23
REMARK SMILES IDX 8 24 30 25 7 26 31 27 5 28 4 29 32 30 3 31 2 32 33 33 36 34
REMARK SMILES IDX 34 35 35 36 6 37 1 38
REMARK H PARENT 12 2 20 16
ROOT
ATOM      1  N   UNL     1       0.801   0.386  -0.333  1.00  0.00    -0.309 N 
ATOM      2  H   UNL     1       0.475   1.355  -0.499  1.00  0.00     0.171 HD
ENDROOT
BRANCH   1   3
ATOM      3  C   UNL     1       2.177   0.159  -0.057  1.00  0.00     0.132 A 
ATOM      4  C   UNL     1       4.912  -0.319   0.494  1.00  0.00    -0.026 A 
ATOM      5  C   UNL     1       4.421   0.963   0.264  1.00  0.00     0.009 A 
ATOM      6  C   UNL     1       3.950  -1.331   0.430  1.00  0.00     0.117 A 
ATOM      7  C   UNL     1       3.080   1.197  -0.006  1.00  0.00     0.047 A 
ATOM      8  N   UNL     1       2.658  -1.077   0.166  1.00  0.00    -0.239 NA
BRANCH   4   9
ATOM      9  C   UNL     1       6.338  -0.593   0.778  1.00  0.00     0.032 C 
ATOM     10  N   UNL     1       7.973   1.645   0.092  1.00  0.00    -0.337 N 
ATOM     11  C   UNL     1       8.174   1.001   1.371  1.00  0.00     0.262 C 
ATOM     12  C   UNL     1       7.444   0.807  -0.932  1.00  0.00     0.262 C 
ATOM     13  C   UNL     1       6.956   0.246   1.834  1.00  0.00     0.070 C 
ATOM     14  C   UNL     1       7.121  -0.583  -0.515  1.00  0.00     0.070 C 
ATOM     15  C   UNL     1       9.271   2.151  -0.315  1.00  0.00     0.332 C 
ATOM     16  H   UNL     1       7.358   2.486   0.201  1.00  0.00     0.347 HD
ENDBRANCH   4   9
ENDBRANCH   1   3
BRANCH   1  17
ATOM     17  C   UNL     1      -0.075  -0.733  -0.370  1.00  0.00     0.229 A 
ATOM     18  N   UNL     1       0.443  -1.953  -0.142  1.00  0.00    -0.218 NA
ATOM     19  N   UNL     1      -1.380  -0.647  -0.618  1.00  0.00    -0.210 NA
ATOM     20  C   UNL     1      -0.269  -3.095  -0.147  1.00  0.00     0.156 A 
ATOM     21  C   UNL     1      -2.164  -1.748  -0.640  1.00  0.00     0.112 A 
ATOM     22  C   UNL     1      -1.626  -3.005  -0.404  1.00  0.00     0.167 A 
ATOM     23  F   UNL     1      -2.368  -4.127  -0.416  1.00  0.00    -0.203 F 
BRANCH  21  24
ATOM     24  C   UNL     1      -3.596  -1.693  -0.907  1.00  0.00     0.007 A 
ATOM     25  C   UNL     1      -4.366  -0.733  -0.285  1.00  0.00     0.017 A 
ATOM     26  C   UNL     1      -4.184  -2.594  -1.777  1.00  0.00     0.052 A 
ATOM     27  C   UNL     1      -5.723  -0.684  -0.540  1.00  0.00    -0.007 A 
ATOM     28  C   UNL     1      -5.542  -2.571  -2.054  1.00  0.00     0.149 A 
ATOM     29  C   UNL     1      -6.293  -1.599  -1.417  1.00  0.00     0.103 A 
ATOM     30  C   UNL     1      -6.789   0.225  -0.024  1.00  0.00     0.036 C 
ATOM     31  N   UNL     1      -7.672  -1.306  -1.476  1.00  0.00    -0.254 NA
ATOM     32  C   UNL     1      -7.986  -0.307  -0.722  1.00  0.00     0.026 C 
ATOM     33  C   UNL     1      -6.547   1.649  -0.451  1.00  0.00     0.018 C 
ATOM     34  C   UNL     1      -6.907   0.195   1.469  1.00  0.00     0.018 C 
ATOM     35  C   UNL     1      -6.788   2.455   0.811  1.00  0.00     0.001 C 
ATOM     36  C   UNL     1      -6.267   1.506   1.884  1.00  0.00     0.001 C 
ATOM     37  F   UNL     1      -6.103  -3.470  -2.915  1.00  0.00    -0.205 F 
ATOM     38  C   UNL     1      -9.363   0.246  -0.567  1.00  0.00     0.063 C 
ENDBRANCH  21  24
ENDBRANCH   1  17
TORSDOF 4
